<?xml version="1.0" encoding="UTF-8"?>

<!-- generated on 2025-04-22 20:36:37 by Eclipse SUMO netedit Version v1_22_0+1609-d3d000a8f75
<neteditConfiguration xmlns:xsi="http://www.w3.org/2001/XMLSchema-instance" xsi:noNamespaceSchemaLocation="http://sumo.dlr.de/xsd/neteditConfiguration.xsd">

    <input>
        <sumo-net-file value="grid_3x3.net.xml"/>
    </input>

    <output>
        <output-file value="grid_3x3.net.xml"/>
    </output>

    <processing>
        <geometry.min-radius.fix.railways value="false"/>
        <geometry.max-grade.fix value="false"/>
        <offset.disable-normalization value="true"/>
        <lefthand value="0"/>
    </processing>

    <junctions>
        <no-turnarounds value="true"/>
        <junctions.corner-detail value="5"/>
        <junctions.limit-turn-speed value="5.50"/>
        <rectangular-lane-cut value="0"/>
    </junctions>

    <pedestrian>
        <walkingareas value="0"/>
    </pedestrian>

</neteditConfiguration>
-->

<net version="1.20" junctionCornerDetail="5" limitTurnSpeed="5.50" xmlns:xsi="http://www.w3.org/2001/XMLSchema-instance" xsi:noNamespaceSchemaLocation="http://sumo.dlr.de/xsd/net_file.xsd">

    <location netOffset="0.00,0.00" convBoundary="0.00,0.00,600.00,600.00" origBoundary="0.00,0.00,600.00,600.00" projParameter="!"/>

    <edge id=":J_0_0_0" function="internal">
        <lane id=":J_0_0_0_0" index="0" speed="6.51" length="9.03" shape="92.00,513.60 91.65,511.15 90.60,509.40 88.85,508.35 86.40,508.00"/>
    </edge>
    <edge id=":J_0_0_1" function="internal">
        <lane id=":J_0_0_1_0" index="0" speed="13.89" length="27.20" shape="92.00,513.60 92.00,486.40"/>
        <lane id=":J_0_0_1_1" index="1" speed="13.89" length="27.20" shape="95.20,513.60 95.20,486.40"/>
    </edge>
    <edge id=":J_0_0_3" function="internal">
        <lane id=":J_0_0_3_0" index="0" speed="10.36" length="12.07" shape="98.40,513.60 99.35,506.95 102.10,502.36"/>
    </edge>
    <edge id=":J_0_0_4" function="internal">
        <lane id=":J_0_0_4_0" index="0" speed="3.65" length="2.34" shape="98.40,513.60 99.20,512.40 100.00,512.00"/>
    </edge>
    <edge id=":J_0_0_20" function="internal">
        <lane id=":J_0_0_20_0" index="0" speed="10.36" length="12.44" shape="102.10,502.36 102.20,502.20 106.95,499.35 113.60,498.40"/>
    </edge>
    <edge id=":J_0_0_21" function="internal">
        <lane id=":J_0_0_21_0" index="0" speed="3.65" length="2.34" shape="100.00,512.00 100.80,512.40 101.60,513.60"/>
    </edge>
    <edge id=":J_0_0_5" function="internal">
        <lane id=":J_0_0_5_0" index="0" speed="6.51" length="9.03" shape="113.60,508.00 111.15,508.35 109.40,509.40 108.35,511.15 108.00,513.60"/>
    </edge>
    <edge id=":J_0_0_6" function="internal">
        <lane id=":J_0_0_6_0" index="0" speed="13.89" length="27.20" shape="113.60,508.00 86.40,508.00"/>
        <lane id=":J_0_0_6_1" index="1" speed="13.89" length="27.20" shape="113.60,504.80 86.40,504.80"/>
    </edge>
    <edge id=":J_0_0_8" function="internal">
        <lane id=":J_0_0_8_0" index="0" speed="10.36" length="12.07" shape="113.60,501.60 106.95,500.65 102.36,497.90"/>
    </edge>
    <edge id=":J_0_0_9" function="internal">
        <lane id=":J_0_0_9_0" index="0" speed="3.65" length="2.34" shape="113.60,501.60 112.40,500.80 112.00,500.00"/>
    </edge>
    <edge id=":J_0_0_22" function="internal">
        <lane id=":J_0_0_22_0" index="0" speed="10.36" length="12.44" shape="102.36,497.90 102.20,497.80 99.35,493.05 98.40,486.40"/>
    </edge>
    <edge id=":J_0_0_23" function="internal">
        <lane id=":J_0_0_23_0" index="0" speed="3.65" length="2.34" shape="112.00,500.00 112.40,499.20 113.60,498.40"/>
    </edge>
    <edge id=":J_0_0_10" function="internal">
        <lane id=":J_0_0_10_0" index="0" speed="6.51" length="9.03" shape="108.00,486.40 108.35,488.85 109.40,490.60 111.15,491.65 113.60,492.00"/>
    </edge>
    <edge id=":J_0_0_11" function="internal">
        <lane id=":J_0_0_11_0" index="0" speed="13.89" length="27.20" shape="108.00,486.40 108.00,513.60"/>
        <lane id=":J_0_0_11_1" index="1" speed="13.89" length="27.20" shape="104.80,486.40 104.80,513.60"/>
    </edge>
    <edge id=":J_0_0_13" function="internal">
        <lane id=":J_0_0_13_0" index="0" speed="10.36" length="12.07" shape="101.60,486.40 100.65,493.05 97.90,497.64"/>
    </edge>
    <edge id=":J_0_0_14" function="internal">
        <lane id=":J_0_0_14_0" index="0" speed="3.65" length="2.34" shape="101.60,486.40 100.80,487.60 100.00,488.00"/>
    </edge>
    <edge id=":J_0_0_24" function="internal">
        <lane id=":J_0_0_24_0" index="0" speed="10.36" length="12.44" shape="97.90,497.64 97.80,497.80 93.05,500.65 86.40,501.60"/>
    </edge>
    <edge id=":J_0_0_25" function="internal">
        <lane id=":J_0_0_25_0" index="0" speed="3.65" length="2.34" shape="100.00,488.00 99.20,487.60 98.40,486.40"/>
    </edge>
    <edge id=":J_0_0_15" function="internal">
        <lane id=":J_0_0_15_0" index="0" speed="6.51" length="9.03" shape="86.40,492.00 88.85,491.65 90.60,490.60 91.65,488.85 92.00,486.40"/>
    </edge>
    <edge id=":J_0_0_16" function="internal">
        <lane id=":J_0_0_16_0" index="0" speed="13.89" length="27.20" shape="86.40,492.00 113.60,492.00"/>
        <lane id=":J_0_0_16_1" index="1" speed="13.89" length="27.20" shape="86.40,495.20 113.60,495.20"/>
    </edge>
    <edge id=":J_0_0_18" function="internal">
        <lane id=":J_0_0_18_0" index="0" speed="10.36" length="12.07" shape="86.40,498.40 93.05,499.35 97.64,502.10"/>
    </edge>
    <edge id=":J_0_0_19" function="internal">
        <lane id=":J_0_0_19_0" index="0" speed="3.65" length="2.34" shape="86.40,498.40 87.60,499.20 88.00,500.00"/>
    </edge>
    <edge id=":J_0_0_26" function="internal">
        <lane id=":J_0_0_26_0" index="0" speed="10.36" length="12.44" shape="97.64,502.10 97.80,502.20 100.65,506.95 101.60,513.60"/>
    </edge>
    <edge id=":J_0_0_27" function="internal">
        <lane id=":J_0_0_27_0" index="0" speed="3.65" length="2.34" shape="88.00,500.00 87.60,500.80 86.40,501.60"/>
    </edge>
    <edge id=":J_0_1_0" function="internal">
        <lane id=":J_0_1_0_0" index="0" speed="6.51" length="9.03" shape="292.00,513.60 291.65,511.15 290.60,509.40 288.85,508.35 286.40,508.00"/>
    </edge>
    <edge id=":J_0_1_1" function="internal">
        <lane id=":J_0_1_1_0" index="0" speed="13.89" length="27.20" shape="292.00,513.60 292.00,486.40"/>
        <lane id=":J_0_1_1_1" index="1" speed="13.89" length="27.20" shape="295.20,513.60 295.20,486.40"/>
    </edge>
    <edge id=":J_0_1_3" function="internal">
        <lane id=":J_0_1_3_0" index="0" speed="10.36" length="12.07" shape="298.40,513.60 299.35,506.95 302.10,502.36"/>
    </edge>
    <edge id=":J_0_1_4" function="internal">
        <lane id=":J_0_1_4_0" index="0" speed="3.65" length="2.34" shape="298.40,513.60 299.20,512.40 300.00,512.00"/>
    </edge>
    <edge id=":J_0_1_20" function="internal">
        <lane id=":J_0_1_20_0" index="0" speed="10.36" length="12.44" shape="302.10,502.36 302.20,502.20 306.95,499.35 313.60,498.40"/>
    </edge>
    <edge id=":J_0_1_21" function="internal">
        <lane id=":J_0_1_21_0" index="0" speed="3.65" length="2.34" shape="300.00,512.00 300.80,512.40 301.60,513.60"/>
    </edge>
    <edge id=":J_0_1_5" function="internal">
        <lane id=":J_0_1_5_0" index="0" speed="6.51" length="9.03" shape="313.60,508.00 311.15,508.35 309.40,509.40 308.35,511.15 308.00,513.60"/>
    </edge>
    <edge id=":J_0_1_6" function="internal">
        <lane id=":J_0_1_6_0" index="0" speed="13.89" length="27.20" shape="313.60,508.00 286.40,508.00"/>
        <lane id=":J_0_1_6_1" index="1" speed="13.89" length="27.20" shape="313.60,504.80 286.40,504.80"/>
    </edge>
    <edge id=":J_0_1_8" function="internal">
        <lane id=":J_0_1_8_0" index="0" speed="10.36" length="12.07" shape="313.60,501.60 306.95,500.65 302.36,497.90"/>
    </edge>
    <edge id=":J_0_1_9" function="internal">
        <lane id=":J_0_1_9_0" index="0" speed="3.65" length="2.34" shape="313.60,501.60 312.40,500.80 312.00,500.00"/>
    </edge>
    <edge id=":J_0_1_22" function="internal">
        <lane id=":J_0_1_22_0" index="0" speed="10.36" length="12.44" shape="302.36,497.90 302.20,497.80 299.35,493.05 298.40,486.40"/>
    </edge>
    <edge id=":J_0_1_23" function="internal">
        <lane id=":J_0_1_23_0" index="0" speed="3.65" length="2.34" shape="312.00,500.00 312.40,499.20 313.60,498.40"/>
    </edge>
    <edge id=":J_0_1_10" function="internal">
        <lane id=":J_0_1_10_0" index="0" speed="6.51" length="9.03" shape="308.00,486.40 308.35,488.85 309.40,490.60 311.15,491.65 313.60,492.00"/>
    </edge>
    <edge id=":J_0_1_11" function="internal">
        <lane id=":J_0_1_11_0" index="0" speed="13.89" length="27.20" shape="308.00,486.40 308.00,513.60"/>
        <lane id=":J_0_1_11_1" index="1" speed="13.89" length="27.20" shape="304.80,486.40 304.80,513.60"/>
    </edge>
    <edge id=":J_0_1_13" function="internal">
        <lane id=":J_0_1_13_0" index="0" speed="10.36" length="12.07" shape="301.60,486.40 300.65,493.05 297.90,497.64"/>
    </edge>
    <edge id=":J_0_1_14" function="internal">
        <lane id=":J_0_1_14_0" index="0" speed="3.65" length="2.34" shape="301.60,486.40 300.80,487.60 300.00,488.00"/>
    </edge>
    <edge id=":J_0_1_24" function="internal">
        <lane id=":J_0_1_24_0" index="0" speed="10.36" length="12.44" shape="297.90,497.64 297.80,497.80 293.05,500.65 286.40,501.60"/>
    </edge>
    <edge id=":J_0_1_25" function="internal">
        <lane id=":J_0_1_25_0" index="0" speed="3.65" length="2.34" shape="300.00,488.00 299.20,487.60 298.40,486.40"/>
    </edge>
    <edge id=":J_0_1_15" function="internal">
        <lane id=":J_0_1_15_0" index="0" speed="6.51" length="9.03" shape="286.40,492.00 288.85,491.65 290.60,490.60 291.65,488.85 292.00,486.40"/>
    </edge>
    <edge id=":J_0_1_16" function="internal">
        <lane id=":J_0_1_16_0" index="0" speed="13.89" length="27.20" shape="286.40,492.00 313.60,492.00"/>
        <lane id=":J_0_1_16_1" index="1" speed="13.89" length="27.20" shape="286.40,495.20 313.60,495.20"/>
    </edge>
    <edge id=":J_0_1_18" function="internal">
        <lane id=":J_0_1_18_0" index="0" speed="10.36" length="12.07" shape="286.40,498.40 293.05,499.35 297.64,502.10"/>
    </edge>
    <edge id=":J_0_1_19" function="internal">
        <lane id=":J_0_1_19_0" index="0" speed="3.65" length="2.34" shape="286.40,498.40 287.60,499.20 288.00,500.00"/>
    </edge>
    <edge id=":J_0_1_26" function="internal">
        <lane id=":J_0_1_26_0" index="0" speed="10.36" length="12.44" shape="297.64,502.10 297.80,502.20 300.65,506.95 301.60,513.60"/>
    </edge>
    <edge id=":J_0_1_27" function="internal">
        <lane id=":J_0_1_27_0" index="0" speed="3.65" length="2.34" shape="288.00,500.00 287.60,500.80 286.40,501.60"/>
    </edge>
    <edge id=":J_0_2_0" function="internal">
        <lane id=":J_0_2_0_0" index="0" speed="6.51" length="9.03" shape="492.00,513.60 491.65,511.15 490.60,509.40 488.85,508.35 486.40,508.00"/>
    </edge>
    <edge id=":J_0_2_1" function="internal">
        <lane id=":J_0_2_1_0" index="0" speed="13.89" length="27.20" shape="492.00,513.60 492.00,486.40"/>
        <lane id=":J_0_2_1_1" index="1" speed="13.89" length="27.20" shape="495.20,513.60 495.20,486.40"/>
    </edge>
    <edge id=":J_0_2_3" function="internal">
        <lane id=":J_0_2_3_0" index="0" speed="10.36" length="12.07" shape="498.40,513.60 499.35,506.95 502.10,502.36"/>
    </edge>
    <edge id=":J_0_2_4" function="internal">
        <lane id=":J_0_2_4_0" index="0" speed="3.65" length="2.34" shape="498.40,513.60 499.20,512.40 500.00,512.00"/>
    </edge>
    <edge id=":J_0_2_20" function="internal">
        <lane id=":J_0_2_20_0" index="0" speed="10.36" length="12.44" shape="502.10,502.36 502.20,502.20 506.95,499.35 513.60,498.40"/>
    </edge>
    <edge id=":J_0_2_21" function="internal">
        <lane id=":J_0_2_21_0" index="0" speed="3.65" length="2.34" shape="500.00,512.00 500.80,512.40 501.60,513.60"/>
    </edge>
    <edge id=":J_0_2_5" function="internal">
        <lane id=":J_0_2_5_0" index="0" speed="6.51" length="9.03" shape="513.60,508.00 511.15,508.35 509.40,509.40 508.35,511.15 508.00,513.60"/>
    </edge>
    <edge id=":J_0_2_6" function="internal">
        <lane id=":J_0_2_6_0" index="0" speed="13.89" length="27.20" shape="513.60,508.00 486.40,508.00"/>
        <lane id=":J_0_2_6_1" index="1" speed="13.89" length="27.20" shape="513.60,504.80 486.40,504.80"/>
    </edge>
    <edge id=":J_0_2_8" function="internal">
        <lane id=":J_0_2_8_0" index="0" speed="10.36" length="12.07" shape="513.60,501.60 506.95,500.65 502.36,497.90"/>
    </edge>
    <edge id=":J_0_2_9" function="internal">
        <lane id=":J_0_2_9_0" index="0" speed="3.65" length="2.34" shape="513.60,501.60 512.40,500.80 512.00,500.00"/>
    </edge>
    <edge id=":J_0_2_22" function="internal">
        <lane id=":J_0_2_22_0" index="0" speed="10.36" length="12.44" shape="502.36,497.90 502.20,497.80 499.35,493.05 498.40,486.40"/>
    </edge>
    <edge id=":J_0_2_23" function="internal">
        <lane id=":J_0_2_23_0" index="0" speed="3.65" length="2.34" shape="512.00,500.00 512.40,499.20 513.60,498.40"/>
    </edge>
    <edge id=":J_0_2_10" function="internal">
        <lane id=":J_0_2_10_0" index="0" speed="6.51" length="9.03" shape="508.00,486.40 508.35,488.85 509.40,490.60 511.15,491.65 513.60,492.00"/>
    </edge>
    <edge id=":J_0_2_11" function="internal">
        <lane id=":J_0_2_11_0" index="0" speed="13.89" length="27.20" shape="508.00,486.40 508.00,513.60"/>
        <lane id=":J_0_2_11_1" index="1" speed="13.89" length="27.20" shape="504.80,486.40 504.80,513.60"/>
    </edge>
    <edge id=":J_0_2_13" function="internal">
        <lane id=":J_0_2_13_0" index="0" speed="10.36" length="12.07" shape="501.60,486.40 500.65,493.05 497.90,497.64"/>
    </edge>
    <edge id=":J_0_2_14" function="internal">
        <lane id=":J_0_2_14_0" index="0" speed="3.65" length="2.34" shape="501.60,486.40 500.80,487.60 500.00,488.00"/>
    </edge>
    <edge id=":J_0_2_24" function="internal">
        <lane id=":J_0_2_24_0" index="0" speed="10.36" length="12.44" shape="497.90,497.64 497.80,497.80 493.05,500.65 486.40,501.60"/>
    </edge>
    <edge id=":J_0_2_25" function="internal">
        <lane id=":J_0_2_25_0" index="0" speed="3.65" length="2.34" shape="500.00,488.00 499.20,487.60 498.40,486.40"/>
    </edge>
    <edge id=":J_0_2_15" function="internal">
        <lane id=":J_0_2_15_0" index="0" speed="6.51" length="9.03" shape="486.40,492.00 488.85,491.65 490.60,490.60 491.65,488.85 492.00,486.40"/>
    </edge>
    <edge id=":J_0_2_16" function="internal">
        <lane id=":J_0_2_16_0" index="0" speed="13.89" length="27.20" shape="486.40,492.00 513.60,492.00"/>
        <lane id=":J_0_2_16_1" index="1" speed="13.89" length="27.20" shape="486.40,495.20 513.60,495.20"/>
    </edge>
    <edge id=":J_0_2_18" function="internal">
        <lane id=":J_0_2_18_0" index="0" speed="10.36" length="12.07" shape="486.40,498.40 493.05,499.35 497.64,502.10"/>
    </edge>
    <edge id=":J_0_2_19" function="internal">
        <lane id=":J_0_2_19_0" index="0" speed="3.65" length="2.34" shape="486.40,498.40 487.60,499.20 488.00,500.00"/>
    </edge>
    <edge id=":J_0_2_26" function="internal">
        <lane id=":J_0_2_26_0" index="0" speed="10.36" length="12.44" shape="497.64,502.10 497.80,502.20 500.65,506.95 501.60,513.60"/>
    </edge>
    <edge id=":J_0_2_27" function="internal">
        <lane id=":J_0_2_27_0" index="0" speed="3.65" length="2.34" shape="488.00,500.00 487.60,500.80 486.40,501.60"/>
    </edge>
    <edge id=":J_1_0_0" function="internal">
        <lane id=":J_1_0_0_0" index="0" speed="6.51" length="9.03" shape="92.00,313.60 91.65,311.15 90.60,309.40 88.85,308.35 86.40,308.00"/>
    </edge>
    <edge id=":J_1_0_1" function="internal">
        <lane id=":J_1_0_1_0" index="0" speed="13.89" length="27.20" shape="92.00,313.60 92.00,286.40"/>
        <lane id=":J_1_0_1_1" index="1" speed="13.89" length="27.20" shape="95.20,313.60 95.20,286.40"/>
    </edge>
    <edge id=":J_1_0_3" function="internal">
        <lane id=":J_1_0_3_0" index="0" speed="10.36" length="12.07" shape="98.40,313.60 99.35,306.95 102.10,302.36"/>
    </edge>
    <edge id=":J_1_0_4" function="internal">
        <lane id=":J_1_0_4_0" index="0" speed="3.65" length="2.34" shape="98.40,313.60 99.20,312.40 100.00,312.00"/>
    </edge>
    <edge id=":J_1_0_20" function="internal">
        <lane id=":J_1_0_20_0" index="0" speed="10.36" length="12.44" shape="102.10,302.36 102.20,302.20 106.95,299.35 113.60,298.40"/>
    </edge>
    <edge id=":J_1_0_21" function="internal">
        <lane id=":J_1_0_21_0" index="0" speed="3.65" length="2.34" shape="100.00,312.00 100.80,312.40 101.60,313.60"/>
    </edge>
    <edge id=":J_1_0_5" function="internal">
        <lane id=":J_1_0_5_0" index="0" speed="6.51" length="9.03" shape="113.60,308.00 111.15,308.35 109.40,309.40 108.35,311.15 108.00,313.60"/>
    </edge>
    <edge id=":J_1_0_6" function="internal">
        <lane id=":J_1_0_6_0" index="0" speed="13.89" length="27.20" shape="113.60,308.00 86.40,308.00"/>
        <lane id=":J_1_0_6_1" index="1" speed="13.89" length="27.20" shape="113.60,304.80 86.40,304.80"/>
    </edge>
    <edge id=":J_1_0_8" function="internal">
        <lane id=":J_1_0_8_0" index="0" speed="10.36" length="12.07" shape="113.60,301.60 106.95,300.65 102.36,297.90"/>
    </edge>
    <edge id=":J_1_0_9" function="internal">
        <lane id=":J_1_0_9_0" index="0" speed="3.65" length="2.34" shape="113.60,301.60 112.40,300.80 112.00,300.00"/>
    </edge>
    <edge id=":J_1_0_22" function="internal">
        <lane id=":J_1_0_22_0" index="0" speed="10.36" length="12.44" shape="102.36,297.90 102.20,297.80 99.35,293.05 98.40,286.40"/>
    </edge>
    <edge id=":J_1_0_23" function="internal">
        <lane id=":J_1_0_23_0" index="0" speed="3.65" length="2.34" shape="112.00,300.00 112.40,299.20 113.60,298.40"/>
    </edge>
    <edge id=":J_1_0_10" function="internal">
        <lane id=":J_1_0_10_0" index="0" speed="6.51" length="9.03" shape="108.00,286.40 108.35,288.85 109.40,290.60 111.15,291.65 113.60,292.00"/>
    </edge>
    <edge id=":J_1_0_11" function="internal">
        <lane id=":J_1_0_11_0" index="0" speed="13.89" length="27.20" shape="108.00,286.40 108.00,313.60"/>
        <lane id=":J_1_0_11_1" index="1" speed="13.89" length="27.20" shape="104.80,286.40 104.80,313.60"/>
    </edge>
    <edge id=":J_1_0_13" function="internal">
        <lane id=":J_1_0_13_0" index="0" speed="10.36" length="12.07" shape="101.60,286.40 100.65,293.05 97.90,297.64"/>
    </edge>
    <edge id=":J_1_0_14" function="internal">
        <lane id=":J_1_0_14_0" index="0" speed="3.65" length="2.34" shape="101.60,286.40 100.80,287.60 100.00,288.00"/>
    </edge>
    <edge id=":J_1_0_24" function="internal">
        <lane id=":J_1_0_24_0" index="0" speed="10.36" length="12.44" shape="97.90,297.64 97.80,297.80 93.05,300.65 86.40,301.60"/>
    </edge>
    <edge id=":J_1_0_25" function="internal">
        <lane id=":J_1_0_25_0" index="0" speed="3.65" length="2.34" shape="100.00,288.00 99.20,287.60 98.40,286.40"/>
    </edge>
    <edge id=":J_1_0_15" function="internal">
        <lane id=":J_1_0_15_0" index="0" speed="6.51" length="9.03" shape="86.40,292.00 88.85,291.65 90.60,290.60 91.65,288.85 92.00,286.40"/>
    </edge>
    <edge id=":J_1_0_16" function="internal">
        <lane id=":J_1_0_16_0" index="0" speed="13.89" length="27.20" shape="86.40,292.00 113.60,292.00"/>
        <lane id=":J_1_0_16_1" index="1" speed="13.89" length="27.20" shape="86.40,295.20 113.60,295.20"/>
    </edge>
    <edge id=":J_1_0_18" function="internal">
        <lane id=":J_1_0_18_0" index="0" speed="10.36" length="12.07" shape="86.40,298.40 93.05,299.35 97.64,302.10"/>
    </edge>
    <edge id=":J_1_0_19" function="internal">
        <lane id=":J_1_0_19_0" index="0" speed="3.65" length="2.34" shape="86.40,298.40 87.60,299.20 88.00,300.00"/>
    </edge>
    <edge id=":J_1_0_26" function="internal">
        <lane id=":J_1_0_26_0" index="0" speed="10.36" length="12.44" shape="97.64,302.10 97.80,302.20 100.65,306.95 101.60,313.60"/>
    </edge>
    <edge id=":J_1_0_27" function="internal">
        <lane id=":J_1_0_27_0" index="0" speed="3.65" length="2.34" shape="88.00,300.00 87.60,300.80 86.40,301.60"/>
    </edge>
    <edge id=":J_1_1_0" function="internal">
        <lane id=":J_1_1_0_0" index="0" speed="6.51" length="9.03" shape="292.00,313.60 291.65,311.15 290.60,309.40 288.85,308.35 286.40,308.00"/>
    </edge>
    <edge id=":J_1_1_1" function="internal">
        <lane id=":J_1_1_1_0" index="0" speed="13.89" length="27.20" shape="292.00,313.60 292.00,286.40"/>
        <lane id=":J_1_1_1_1" index="1" speed="13.89" length="27.20" shape="295.20,313.60 295.20,286.40"/>
    </edge>
    <edge id=":J_1_1_3" function="internal">
        <lane id=":J_1_1_3_0" index="0" speed="10.36" length="12.07" shape="298.40,313.60 299.35,306.95 302.10,302.36"/>
    </edge>
    <edge id=":J_1_1_4" function="internal">
        <lane id=":J_1_1_4_0" index="0" speed="3.65" length="2.34" shape="298.40,313.60 299.20,312.40 300.00,312.00"/>
    </edge>
    <edge id=":J_1_1_20" function="internal">
        <lane id=":J_1_1_20_0" index="0" speed="10.36" length="12.44" shape="302.10,302.36 302.20,302.20 306.95,299.35 313.60,298.40"/>
    </edge>
    <edge id=":J_1_1_21" function="internal">
        <lane id=":J_1_1_21_0" index="0" speed="3.65" length="2.34" shape="300.00,312.00 300.80,312.40 301.60,313.60"/>
    </edge>
    <edge id=":J_1_1_5" function="internal">
        <lane id=":J_1_1_5_0" index="0" speed="6.51" length="9.03" shape="313.60,308.00 311.15,308.35 309.40,309.40 308.35,311.15 308.00,313.60"/>
    </edge>
    <edge id=":J_1_1_6" function="internal">
        <lane id=":J_1_1_6_0" index="0" speed="13.89" length="27.20" shape="313.60,308.00 286.40,308.00"/>
        <lane id=":J_1_1_6_1" index="1" speed="13.89" length="27.20" shape="313.60,304.80 286.40,304.80"/>
    </edge>
    <edge id=":J_1_1_8" function="internal">
        <lane id=":J_1_1_8_0" index="0" speed="10.36" length="12.07" shape="313.60,301.60 306.95,300.65 302.36,297.90"/>
    </edge>
    <edge id=":J_1_1_9" function="internal">
        <lane id=":J_1_1_9_0" index="0" speed="3.65" length="2.34" shape="313.60,301.60 312.40,300.80 312.00,300.00"/>
    </edge>
    <edge id=":J_1_1_22" function="internal">
        <lane id=":J_1_1_22_0" index="0" speed="10.36" length="12.44" shape="302.36,297.90 302.20,297.80 299.35,293.05 298.40,286.40"/>
    </edge>
    <edge id=":J_1_1_23" function="internal">
        <lane id=":J_1_1_23_0" index="0" speed="3.65" length="2.34" shape="312.00,300.00 312.40,299.20 313.60,298.40"/>
    </edge>
    <edge id=":J_1_1_10" function="internal">
        <lane id=":J_1_1_10_0" index="0" speed="6.51" length="9.03" shape="308.00,286.40 308.35,288.85 309.40,290.60 311.15,291.65 313.60,292.00"/>
    </edge>
    <edge id=":J_1_1_11" function="internal">
        <lane id=":J_1_1_11_0" index="0" speed="13.89" length="27.20" shape="308.00,286.40 308.00,313.60"/>
        <lane id=":J_1_1_11_1" index="1" speed="13.89" length="27.20" shape="304.80,286.40 304.80,313.60"/>
    </edge>
    <edge id=":J_1_1_13" function="internal">
        <lane id=":J_1_1_13_0" index="0" speed="10.36" length="12.07" shape="301.60,286.40 300.65,293.05 297.90,297.64"/>
    </edge>
    <edge id=":J_1_1_14" function="internal">
        <lane id=":J_1_1_14_0" index="0" speed="3.65" length="2.34" shape="301.60,286.40 300.80,287.60 300.00,288.00"/>
    </edge>
    <edge id=":J_1_1_24" function="internal">
        <lane id=":J_1_1_24_0" index="0" speed="10.36" length="12.44" shape="297.90,297.64 297.80,297.80 293.05,300.65 286.40,301.60"/>
    </edge>
    <edge id=":J_1_1_25" function="internal">
        <lane id=":J_1_1_25_0" index="0" speed="3.65" length="2.34" shape="300.00,288.00 299.20,287.60 298.40,286.40"/>
    </edge>
    <edge id=":J_1_1_15" function="internal">
        <lane id=":J_1_1_15_0" index="0" speed="6.51" length="9.03" shape="286.40,292.00 288.85,291.65 290.60,290.60 291.65,288.85 292.00,286.40"/>
    </edge>
    <edge id=":J_1_1_16" function="internal">
        <lane id=":J_1_1_16_0" index="0" speed="13.89" length="27.20" shape="286.40,292.00 313.60,292.00"/>
        <lane id=":J_1_1_16_1" index="1" speed="13.89" length="27.20" shape="286.40,295.20 313.60,295.20"/>
    </edge>
    <edge id=":J_1_1_18" function="internal">
        <lane id=":J_1_1_18_0" index="0" speed="10.36" length="12.07" shape="286.40,298.40 293.05,299.35 297.64,302.10"/>
    </edge>
    <edge id=":J_1_1_19" function="internal">
        <lane id=":J_1_1_19_0" index="0" speed="3.65" length="2.34" shape="286.40,298.40 287.60,299.20 288.00,300.00"/>
    </edge>
    <edge id=":J_1_1_26" function="internal">
        <lane id=":J_1_1_26_0" index="0" speed="10.36" length="12.44" shape="297.64,302.10 297.80,302.20 300.65,306.95 301.60,313.60"/>
    </edge>
    <edge id=":J_1_1_27" function="internal">
        <lane id=":J_1_1_27_0" index="0" speed="3.65" length="2.34" shape="288.00,300.00 287.60,300.80 286.40,301.60"/>
    </edge>
    <edge id=":J_1_2_0" function="internal">
        <lane id=":J_1_2_0_0" index="0" speed="6.51" length="9.03" shape="492.00,313.60 491.65,311.15 490.60,309.40 488.85,308.35 486.40,308.00"/>
    </edge>
    <edge id=":J_1_2_1" function="internal">
        <lane id=":J_1_2_1_0" index="0" speed="13.89" length="27.20" shape="492.00,313.60 492.00,286.40"/>
        <lane id=":J_1_2_1_1" index="1" speed="13.89" length="27.20" shape="495.20,313.60 495.20,286.40"/>
    </edge>
    <edge id=":J_1_2_3" function="internal">
        <lane id=":J_1_2_3_0" index="0" speed="10.36" length="12.07" shape="498.40,313.60 499.35,306.95 502.10,302.36"/>
    </edge>
    <edge id=":J_1_2_4" function="internal">
        <lane id=":J_1_2_4_0" index="0" speed="3.65" length="2.34" shape="498.40,313.60 499.20,312.40 500.00,312.00"/>
    </edge>
    <edge id=":J_1_2_20" function="internal">
        <lane id=":J_1_2_20_0" index="0" speed="10.36" length="12.44" shape="502.10,302.36 502.20,302.20 506.95,299.35 513.60,298.40"/>
    </edge>
    <edge id=":J_1_2_21" function="internal">
        <lane id=":J_1_2_21_0" index="0" speed="3.65" length="2.34" shape="500.00,312.00 500.80,312.40 501.60,313.60"/>
    </edge>
    <edge id=":J_1_2_5" function="internal">
        <lane id=":J_1_2_5_0" index="0" speed="6.51" length="9.03" shape="513.60,308.00 511.15,308.35 509.40,309.40 508.35,311.15 508.00,313.60"/>
    </edge>
    <edge id=":J_1_2_6" function="internal">
        <lane id=":J_1_2_6_0" index="0" speed="13.89" length="27.20" shape="513.60,308.00 486.40,308.00"/>
        <lane id=":J_1_2_6_1" index="1" speed="13.89" length="27.20" shape="513.60,304.80 486.40,304.80"/>
    </edge>
    <edge id=":J_1_2_8" function="internal">
        <lane id=":J_1_2_8_0" index="0" speed="10.36" length="12.07" shape="513.60,301.60 506.95,300.65 502.36,297.90"/>
    </edge>
    <edge id=":J_1_2_9" function="internal">
        <lane id=":J_1_2_9_0" index="0" speed="3.65" length="2.34" shape="513.60,301.60 512.40,300.80 512.00,300.00"/>
    </edge>
    <edge id=":J_1_2_22" function="internal">
        <lane id=":J_1_2_22_0" index="0" speed="10.36" length="12.44" shape="502.36,297.90 502.20,297.80 499.35,293.05 498.40,286.40"/>
    </edge>
    <edge id=":J_1_2_23" function="internal">
        <lane id=":J_1_2_23_0" index="0" speed="3.65" length="2.34" shape="512.00,300.00 512.40,299.20 513.60,298.40"/>
    </edge>
    <edge id=":J_1_2_10" function="internal">
        <lane id=":J_1_2_10_0" index="0" speed="6.51" length="9.03" shape="508.00,286.40 508.35,288.85 509.40,290.60 511.15,291.65 513.60,292.00"/>
    </edge>
    <edge id=":J_1_2_11" function="internal">
        <lane id=":J_1_2_11_0" index="0" speed="13.89" length="27.20" shape="508.00,286.40 508.00,313.60"/>
        <lane id=":J_1_2_11_1" index="1" speed="13.89" length="27.20" shape="504.80,286.40 504.80,313.60"/>
    </edge>
    <edge id=":J_1_2_13" function="internal">
        <lane id=":J_1_2_13_0" index="0" speed="10.36" length="12.07" shape="501.60,286.40 500.65,293.05 497.90,297.64"/>
    </edge>
    <edge id=":J_1_2_14" function="internal">
        <lane id=":J_1_2_14_0" index="0" speed="3.65" length="2.34" shape="501.60,286.40 500.80,287.60 500.00,288.00"/>
    </edge>
    <edge id=":J_1_2_24" function="internal">
        <lane id=":J_1_2_24_0" index="0" speed="10.36" length="12.44" shape="497.90,297.64 497.80,297.80 493.05,300.65 486.40,301.60"/>
    </edge>
    <edge id=":J_1_2_25" function="internal">
        <lane id=":J_1_2_25_0" index="0" speed="3.65" length="2.34" shape="500.00,288.00 499.20,287.60 498.40,286.40"/>
    </edge>
    <edge id=":J_1_2_15" function="internal">
        <lane id=":J_1_2_15_0" index="0" speed="6.51" length="9.03" shape="486.40,292.00 488.85,291.65 490.60,290.60 491.65,288.85 492.00,286.40"/>
    </edge>
    <edge id=":J_1_2_16" function="internal">
        <lane id=":J_1_2_16_0" index="0" speed="13.89" length="27.20" shape="486.40,292.00 513.60,292.00"/>
        <lane id=":J_1_2_16_1" index="1" speed="13.89" length="27.20" shape="486.40,295.20 513.60,295.20"/>
    </edge>
    <edge id=":J_1_2_18" function="internal">
        <lane id=":J_1_2_18_0" index="0" speed="10.36" length="12.07" shape="486.40,298.40 493.05,299.35 497.64,302.10"/>
    </edge>
    <edge id=":J_1_2_19" function="internal">
        <lane id=":J_1_2_19_0" index="0" speed="3.65" length="2.34" shape="486.40,298.40 487.60,299.20 488.00,300.00"/>
    </edge>
    <edge id=":J_1_2_26" function="internal">
        <lane id=":J_1_2_26_0" index="0" speed="10.36" length="12.44" shape="497.64,302.10 497.80,302.20 500.65,306.95 501.60,313.60"/>
    </edge>