<?xml version="1.0" encoding="UTF-8"?>

<!-- generated on 2025-04-30 20:45:36 by Eclipse SUMO netedit Version v1_22_0+1684-b918e1ddaf1
<neteditConfiguration xmlns:xsi="http://www.w3.org/2001/XMLSchema-instance" xsi:noNamespaceSchemaLocation="http://sumo.dlr.de/xsd/neteditConfiguration.xsd">

    <input>
        <sumo-net-file value="src/sumo_files/scenarios/grid_3x3_lefthand/grid_3x3_lht.net.xml"/>
    </input>

    <output>
        <output-file value="src/sumo_files/scenarios/grid_3x3_lefthand/grid_3x3_lht.net.xml"/>
    </output>

    <processing>
        <geometry.min-radius.fix.railways value="false"/>
        <geometry.max-grade.fix value="false"/>
        <offset.disable-normalization value="true"/>
        <lefthand value="1"/>
    </processing>

    <junctions>
        <no-turnarounds value="true"/>
        <junctions.corner-detail value="5"/>
        <junctions.limit-turn-speed value="5.50"/>
        <rectangular-lane-cut value="0"/>
    </junctions>

    <pedestrian>
        <walkingareas value="0"/>
    </pedestrian>

</neteditConfiguration>
-->

<net version="1.20" junctionCornerDetail="5" lefthand="true" limitTurnSpeed="5.50" xmlns:xsi="http://www.w3.org/2001/XMLSchema-instance" xsi:noNamespaceSchemaLocation="http://sumo.dlr.de/xsd/net_file.xsd">

    <location netOffset="0.00,-0.00" convBoundary="0.00,0.00,1000.00,1000.00" origBoundary="0.00,0.00,1000.00,1000.00" projParameter="!"/>

    <edge id=":END_E_J_0_2_0" function="internal">
        <lane id=":END_E_J_0_2_0_0" index="0" speed="3.65" length="4.67" shape="1000.00,901.60 1001.20,900.80 1001.60,900.00 1001.20,899.20 1000.00,898.40"/>
    </edge>
    <edge id=":END_E_J_1_2_0" function="internal">
        <lane id=":END_E_J_1_2_0_0" index="0" speed="3.65" length="4.67" shape="1000.00,501.60 1001.20,500.80 1001.60,500.00 1001.20,499.20 1000.00,498.40"/>
    </edge>
    <edge id=":END_E_J_2_2_0" function="internal">
        <lane id=":END_E_J_2_2_0_0" index="0" speed="3.65" length="4.67" shape="1000.00,101.60 1001.20,100.80 1001.60,100.00 1001.20,99.20 1000.00,98.40"/>
    </edge>
    <edge id=":END_N_J_0_0_0" function="internal">
        <lane id=":END_N_J_0_0_0_0" index="0" speed="3.65" length="4.67" shape="98.40,1000.00 99.20,1001.20 100.00,1001.60 100.80,1001.20 101.60,1000.00"/>
    </edge>
    <edge id=":END_N_J_0_1_0" function="internal">
        <lane id=":END_N_J_0_1_0_0" index="0" speed="3.65" length="4.67" shape="498.40,1000.00 499.20,1001.20 500.00,1001.60 500.80,1001.20 501.60,1000.00"/>
    </edge>
    <edge id=":END_N_J_0_2_0" function="internal">
        <lane id=":END_N_J_0_2_0_0" index="0" speed="3.65" length="4.67" shape="898.40,1000.00 899.20,1001.20 900.00,1001.60 900.80,1001.20 901.60,1000.00"/>
    </edge>
    <edge id=":END_S_J_2_0_0" function="internal">
        <lane id=":END_S_J_2_0_0_0" index="0" speed="3.65" length="4.67" shape="101.60,-0.00 100.80,-1.20 100.00,-1.60 99.20,-1.20 98.40,-0.00"/>
    </edge>
    <edge id=":END_S_J_2_1_0" function="internal">
        <lane id=":END_S_J_2_1_0_0" index="0" speed="3.65" length="4.67" shape="501.60,-0.00 500.80,-1.20 500.00,-1.60 499.20,-1.20 498.40,-0.00"/>
    </edge>
    <edge id=":END_S_J_2_2_0" function="internal">
        <lane id=":END_S_J_2_2_0_0" index="0" speed="3.65" length="4.67" shape="901.60,-0.00 900.80,-1.20 900.00,-1.60 899.20,-1.20 898.40,-0.00"/>
    </edge>
    <edge id=":END_W_J_0_0_0" function="internal">
        <lane id=":END_W_J_0_0_0_0" index="0" speed="3.65" length="4.67" shape="0.00,898.40 -1.20,899.20 -1.60,900.00 -1.20,900.80 0.00,901.60"/>
    </edge>
    <edge id=":END_W_J_1_0_0" function="internal">
        <lane id=":END_W_J_1_0_0_0" index="0" speed="3.65" length="4.67" shape="0.00,498.40 -1.20,499.20 -1.60,500.00 -1.20,500.80 0.00,501.60"/>
    </edge>
    <edge id=":END_W_J_2_0_0" function="internal">
        <lane id=":END_W_J_2_0_0_0" index="0" speed="3.65" length="4.67" shape="0.00,98.40 -1.20,99.20 -1.60,100.00 -1.20,100.80 0.00,101.60"/>
    </edge>
    <edge id=":J_0_0_0" function="internal">
        <lane id=":J_0_0_0_0" index="0" speed="6.51" length="9.03" shape="92.00,886.40 91.65,888.85 90.60,890.60 88.85,891.65 86.40,892.00"/>
    </edge>
    <edge id=":J_0_0_1" function="internal">
        <lane id=":J_0_0_1_0" index="0" speed="13.89" length="27.20" shape="92.00,886.40 92.00,913.60"/>
        <lane id=":J_0_0_1_1" index="1" speed="13.89" length="27.20" shape="95.20,886.40 95.20,913.60"/>
        <lane id=":J_0_0_1_2" index="2" speed="13.89" length="27.20" shape="98.40,886.40 98.40,913.60"/>
    </edge>
    <edge id=":J_0_0_4" function="internal">
        <lane id=":J_0_0_4_0" index="0" speed="10.36" length="5.01" shape="98.40,886.40 99.11,891.36"/>
    </edge>
    <edge id=":J_0_0_5" function="internal">
        <lane id=":J_0_0_5_0" index="0" speed="3.65" length="1.44" shape="98.40,886.40 99.20,887.60"/>
    </edge>
    <edge id=":J_0_0_24" function="internal">
        <lane id=":J_0_0_24_0" index="0" speed="10.36" length="19.50" shape="99.11,891.36 99.35,893.05 102.20,897.80 106.95,900.65 113.60,901.60"/>
    </edge>
    <edge id=":J_0_0_25" function="internal">
        <lane id=":J_0_0_25_0" index="0" speed="3.65" length="3.23" shape="99.20,887.60 100.00,888.00 100.80,887.60 101.60,886.40"/>
    </edge>
    <edge id=":J_0_0_6" function="internal">
        <lane id=":J_0_0_6_0" index="0" speed="6.51" length="9.03" shape="113.60,892.00 111.15,891.65 109.40,890.60 108.35,888.85 108.00,886.40"/>
    </edge>
    <edge id=":J_0_0_7" function="internal">
        <lane id=":J_0_0_7_0" index="0" speed="13.89" length="27.20" shape="113.60,892.00 86.40,892.00"/>
        <lane id=":J_0_0_7_1" index="1" speed="13.89" length="27.20" shape="113.60,895.20 86.40,895.20"/>
        <lane id=":J_0_0_7_2" index="2" speed="13.89" length="27.20" shape="113.60,898.40 86.40,898.40"/>
    </edge>
    <edge id=":J_0_0_10" function="internal">
        <lane id=":J_0_0_10_0" index="0" speed="10.36" length="5.01" shape="113.60,898.40 108.64,899.11"/>
    </edge>
    <edge id=":J_0_0_11" function="internal">
        <lane id=":J_0_0_11_0" index="0" speed="3.65" length="1.44" shape="113.60,898.40 112.40,899.20"/>
    </edge>
    <edge id=":J_0_0_26" function="internal">
        <lane id=":J_0_0_26_0" index="0" speed="10.36" length="19.50" shape="108.64,899.11 106.95,899.35 102.20,902.20 99.35,906.95 98.40,913.60"/>
    </edge>
    <edge id=":J_0_0_27" function="internal">
        <lane id=":J_0_0_27_0" index="0" speed="3.65" length="3.23" shape="112.40,899.20 112.00,900.00 112.40,900.80 113.60,901.60"/>
    </edge>
    <edge id=":J_0_0_12" function="internal">
        <lane id=":J_0_0_12_0" index="0" speed="6.51" length="9.03" shape="108.00,913.60 108.35,911.15 109.40,909.40 111.15,908.35 113.60,908.00"/>
    </edge>
    <edge id=":J_0_0_13" function="internal">
        <lane id=":J_0_0_13_0" index="0" speed="13.89" length="27.20" shape="108.00,913.60 108.00,886.40"/>
        <lane id=":J_0_0_13_1" index="1" speed="13.89" length="27.20" shape="104.80,913.60 104.80,886.40"/>
        <lane id=":J_0_0_13_2" index="2" speed="13.89" length="27.20" shape="101.60,913.60 101.60,886.40"/>
    </edge>
    <edge id=":J_0_0_16" function="internal">
        <lane id=":J_0_0_16_0" index="0" speed="10.36" length="5.01" shape="101.60,913.60 100.89,908.64"/>
    </edge>
    <edge id=":J_0_0_17" function="internal">
        <lane id=":J_0_0_17_0" index="0" speed="3.65" length="1.44" shape="101.60,913.60 100.80,912.40"/>
    </edge>
    <edge id=":J_0_0_28" function="internal">
        <lane id=":J_0_0_28_0" index="0" speed="10.36" length="19.50" shape="100.89,908.64 100.65,906.95 97.80,902.20 93.05,899.35 86.40,898.40"/>
    </edge>
    <edge id=":J_0_0_29" function="internal">
        <lane id=":J_0_0_29_0" index="0" speed="3.65" length="3.23" shape="100.80,912.40 100.00,912.00 99.20,912.40 98.40,913.60"/>
    </edge>
    <edge id=":J_0_0_18" function="internal">
        <lane id=":J_0_0_18_0" index="0" speed="6.51" length="9.03" shape="86.40,908.00 88.85,908.35 90.60,909.40 91.65,911.15 92.00,913.60"/>
    </edge>
    <edge id=":J_0_0_19" function="internal">
        <lane id=":J_0_0_19_0" index="0" speed="13.89" length="27.20" shape="86.40,908.00 113.60,908.00"/>
        <lane id=":J_0_0_19_1" index="1" speed="13.89" length="27.20" shape="86.40,904.80 113.60,904.80"/>
        <lane id=":J_0_0_19_2" index="2" speed="13.89" length="27.20" shape="86.40,901.60 113.60,901.60"/>
    </edge>
    <edge id=":J_0_0_22" function="internal">
        <lane id=":J_0_0_22_0" index="0" speed="10.36" length="5.01" shape="86.40,901.60 91.36,900.89"/>
    </edge>
    <edge id=":J_0_0_23" function="internal">
        <lane id=":J_0_0_23_0" index="0" speed="3.65" length="1.44" shape="86.40,901.60 87.60,900.80"/>
    </edge>
    <edge id=":J_0_0_30" function="internal">
        <lane id=":J_0_0_30_0" index="0" speed="10.36" length="19.50" shape="91.36,900.89 93.05,900.65 97.80,897.80 100.65,893.05 101.60,886.40"/>
    </edge>
    <edge id=":J_0_0_31" function="internal">
        <lane id=":J_0_0_31_0" index="0" speed="3.65" length="3.23" shape="87.60,900.80 88.00,900.00 87.60,899.20 86.40,898.40"/>
    </edge>
    <edge id=":J_0_1_0" function="internal">
        <lane id=":J_0_1_0_0" index="0" speed="6.51" length="9.03" shape="492.00,886.40 491.65,888.85 490.60,890.60 488.85,891.65 486.40,892.00"/>
    </edge>
    <edge id=":J_0_1_1" function="internal">
        <lane id=":J_0_1_1_0" index="0" speed="13.89" length="27.20" shape="492.00,886.40 492.00,913.60"/>
        <lane id=":J_0_1_1_1" index="1" speed="13.89" length="27.20" shape="495.20,886.40 495.20,913.60"/>
        <lane id=":J_0_1_1_2" index="2" speed="13.89" length="27.20" shape="498.40,886.40 498.40,913.60"/>
    </edge>
    <edge id=":J_0_1_4" function="internal">
        <lane id=":J_0_1_4_0" index="0" speed="10.36" length="5.01" shape="498.40,886.40 499.11,891.36"/>
    </edge>
    <edge id=":J_0_1_5" function="internal">
        <lane id=":J_0_1_5_0" index="0" speed="3.65" length="1.44" shape="498.40,886.40 499.20,887.60"/>
    </edge>
    <edge id=":J_0_1_24" function="internal">
        <lane id=":J_0_1_24_0" index="0" speed="10.36" length="19.50" shape="499.11,891.36 499.35,893.05 502.20,897.80 506.95,900.65 513.60,901.60"/>
    </edge>
    <edge id=":J_0_1_25" function="internal">
        <lane id=":J_0_1_25_0" index="0" speed="3.65" length="3.23" shape="499.20,887.60 500.00,888.00 500.80,887.60 501.60,886.40"/>
    </edge>
    <edge id=":J_0_1_6" function="internal">
        <lane id=":J_0_1_6_0" index="0" speed="6.51" length="9.03" shape="513.60,892.00 511.15,891.65 509.40,890.60 508.35,888.85 508.00,886.40"/>
    </edge>
    <edge id=":J_0_1_7" function="internal">
        <lane id=":J_0_1_7_0" index="0" speed="13.89" length="27.20" shape="513.60,892.00 486.40,892.00"/>
        <lane id=":J_0_1_7_1" index="1" speed="13.89" length="27.20" shape="513.60,895.20 486.40,895.20"/>
        <lane id=":J_0_1_7_2" index="2" speed="13.89" length="27.20" shape="513.60,898.40 486.40,898.40"/>
    </edge>
    <edge id=":J_0_1_10" function="internal">
        <lane id=":J_0_1_10_0" index="0" speed="10.36" length="5.01" shape="513.60,898.40 508.64,899.11"/>
    </edge>
    <edge id=":J_0_1_11" function="internal">
        <lane id=":J_0_1_11_0" index="0" speed="3.65" length="1.44" shape="513.60,898.40 512.40,899.20"/>
    </edge>
    <edge id=":J_0_1_26" function="internal">
        <lane id=":J_0_1_26_0" index="0" speed="10.36" length="19.50" shape="508.64,899.11 506.95,899.35 502.20,902.20 499.35,906.95 498.40,913.60"/>
    </edge>
    <edge id=":J_0_1_27" function="internal">
        <lane id=":J_0_1_27_0" index="0" speed="3.65" length="3.23" shape="512.40,899.20 512.00,900.00 512.40,900.80 513.60,901.60"/>
    </edge>
    <edge id=":J_0_1_12" function="internal">
        <lane id=":J_0_1_12_0" index="0" speed="6.51" length="9.03" shape="508.00,913.60 508.35,911.15 509.40,909.40 511.15,908.35 513.60,908.00"/>
    </edge>
    <edge id=":J_0_1_13" function="internal">
        <lane id=":J_0_1_13_0" index="0" speed="13.89" length="27.20" shape="508.00,913.60 508.00,886.40"/>
        <lane id=":J_0_1_13_1" index="1" speed="13.89" length="27.20" shape="504.80,913.60 504.80,886.40"/>
        <lane id=":J_0_1_13_2" index="2" speed="13.89" length="27.20" shape="501.60,913.60 501.60,886.40"/>
    </edge>
    <edge id=":J_0_1_16" function="internal">
        <lane id=":J_0_1_16_0" index="0" speed="10.36" length="5.01" shape="501.60,913.60 500.89,908.64"/>
    </edge>
    <edge id=":J_0_1_17" function="internal">
        <lane id=":J_0_1_17_0" index="0" speed="3.65" length="1.44" shape="501.60,913.60 500.80,912.40"/>
    </edge>
    <edge id=":J_0_1_28" function="internal">
        <lane id=":J_0_1_28_0" index="0" speed="10.36" length="19.50" shape="500.89,908.64 500.65,906.95 497.80,902.20 493.05,899.35 486.40,898.40"/>
    </edge>
    <edge id=":J_0_1_29" function="internal">
        <lane id=":J_0_1_29_0" index="0" speed="3.65" length="3.23" shape="500.80,912.40 500.00,912.00 499.20,912.40 498.40,913.60"/>
    </edge>
    <edge id=":J_0_1_18" function="internal">
        <lane id=":J_0_1_18_0" index="0" speed="6.51" length="9.03" shape="486.40,908.00 488.85,908.35 490.60,909.40 491.65,911.15 492.00,913.60"/>
    </edge>
    <edge id=":J_0_1_19" function="internal">
        <lane id=":J_0_1_19_0" index="0" speed="13.89" length="27.20" shape="486.40,908.00 513.60,908.00"/>
        <lane id=":J_0_1_19_1" index="1" speed="13.89" length="27.20" shape="486.40,904.80 513.60,904.80"/>
        <lane id=":J_0_1_19_2" index="2" speed="13.89" length="27.20" shape="486.40,901.60 513.60,901.60"/>
    </edge>
    <edge id=":J_0_1_22" function="internal">
        <lane id=":J_0_1_22_0" index="0" speed="10.36" length="5.01" shape="486.40,901.60 491.36,900.89"/>
    </edge>
    <edge id=":J_0_1_23" function="internal">
        <lane id=":J_0_1_23_0" index="0" speed="3.65" length="1.44" shape="486.40,901.60 487.60,900.80"/>
    </edge>
    <edge id=":J_0_1_30" function="internal">
        <lane id=":J_0_1_30_0" index="0" speed="10.36" length="19.50" shape="491.36,900.89 493.05,900.65 497.80,897.80 500.65,893.05 501.60,886.40"/>
    </edge>
    <edge id=":J_0_1_31" function="internal">
        <lane id=":J_0_1_31_0" index="0" speed="3.65" length="3.23" shape="487.60,900.80 488.00,900.00 487.60,899.20 486.40,898.40"/>
    </edge>
    <edge id=":J_0_2_0" function="internal">
        <lane id=":J_0_2_0_0" index="0" speed="6.51" length="9.03" shape="892.00,886.40 891.65,888.85 890.60,890.60 888.85,891.65 886.40,892.00"/>
    </edge>
    <edge id=":J_0_2_1" function="internal">
        <lane id=":J_0_2_1_0" index="0" speed="13.89" length="27.20" shape="892.00,886.40 892.00,913.60"/>
        <lane id=":J_0_2_1_1" index="1" speed="13.89" length="27.20" shape="895.20,886.40 895.20,913.60"/>
        <lane id=":J_0_2_1_2" index="2" speed="13.89" length="27.20" shape="898.40,886.40 898.40,913.60"/>
    </edge>
    <edge id=":J_0_2_4" function="internal">
        <lane id=":J_0_2_4_0" index="0" speed="10.36" length="5.01" shape="898.40,886.40 899.11,891.36"/>
    </edge>
    <edge id=":J_0_2_5" function="internal">
        <lane id=":J_0_2_5_0" index="0" speed="3.65" length="1.44" shape="898.40,886.40 899.20,887.60"/>
    </edge>
    <edge id=":J_0_2_24" function="internal">
        <lane id=":J_0_2_24_0" index="0" speed="10.36" length="19.50" shape="899.11,891.36 899.35,893.05 902.20,897.80 906.95,900.65 913.60,901.60"/>
    </edge>
    <edge id=":J_0_2_25" function="internal">
        <lane id=":J_0_2_25_0" index="0" speed="3.65" length="3.23" shape="899.20,887.60 900.00,888.00 900.80,887.60 901.60,886.40"/>
    </edge>
    <edge id=":J_0_2_6" function="internal">
        <lane id=":J_0_2_6_0" index="0" speed="6.51" length="9.03" shape="913.60,892.00 911.15,891.65 909.40,890.60 908.35,888.85 908.00,886.40"/>
    </edge>
    <edge id=":J_0_2_7" function="internal">
        <lane id=":J_0_2_7_0" index="0" speed="13.89" length="27.20" shape="913.60,892.00 886.40,892.00"/>
        <lane id=":J_0_2_7_1" index="1" speed="13.89" length="27.20" shape="913.60,895.20 886.40,895.20"/>
        <lane id=":J_0_2_7_2" index="2" speed="13.89" length="27.20" shape="913.60,898.40 886.40,898.40"/>
    </edge>
    <edge id=":J_0_2_10" function="internal">
        <lane id=":J_0_2_10_0" index="0" speed="10.36" length="5.01" shape="913.60,898.40 908.64,899.11"/>
    </edge>
    <edge id=":J_0_2_11" function="internal">
        <lane id=":J_0_2_11_0" index="0" speed="3.65" length="1.44" shape="913.60,898.40 912.40,899.20"/>
    </edge>
    <edge id=":J_0_2_26" function="internal">
        <lane id=":J_0_2_26_0" index="0" speed="10.36" length="19.50" shape="908.64,899.11 906.95,899.35 902.20,902.20 899.35,906.95 898.40,913.60"/>
    </edge>
    <edge id=":J_0_2_27" function="internal">
        <lane id=":J_0_2_27_0" index="0" speed="3.65" length="3.23" shape="912.40,899.20 912.00,900.00 912.40,900.80 913.60,901.60"/>
    </edge>
    <edge id=":J_0_2_12" function="internal">
        <lane id=":J_0_2_12_0" index="0" speed="6.51" length="9.03" shape="908.00,913.60 908.35,911.15 909.40,909.40 911.15,908.35 913.60,908.00"/>
    </edge>
    <edge id=":J_0_2_13" function="internal">
        <lane id=":J_0_2_13_0" index="0" speed="13.89" length="27.20" shape="908.00,913.60 908.00,886.40"/>
        <lane id=":J_0_2_13_1" index="1" speed="13.89" length="27.20" shape="904.80,913.60 904.80,886.40"/>
        <lane id=":J_0_2_13_2" index="2" speed="13.89" length="27.20" shape="901.60,913.60 901.60,886.40"/>
    </edge>
    <edge id=":J_0_2_16" function="internal">
        <lane id=":J_0_2_16_0" index="0" speed="10.36" length="5.01" shape="901.60,913.60 900.89,908.64"/>
    </edge>
    <edge id=":J_0_2_17" function="internal">
        <lane id=":J_0_2_17_0" index="0" speed="3.65" length="1.44" shape="901.60,913.60 900.80,912.40"/>
    </edge>
    <edge id=":J_0_2_28" function="internal">
        <lane id=":J_0_2_28_0" index="0" speed="10.36" length="19.50" shape="900.89,908.64 900.65,906.95 897.80,902.20 893.05,899.35 886.40,898.40"/>
    </edge>
    <edge id=":J_0_2_29" function="internal">
        <lane id=":J_0_2_29_0" index="0" speed="3.65" length="3.23" shape="900.80,912.40 900.00,912.00 899.20,912.40 898.40,913.60"/>
    </edge>
    <edge id=":J_0_2_18" function="internal">
        <lane id=":J_0_2_18_0" index="0" speed="6.51" length="9.03" shape="886.40,908.00 888.85,908.35 890.60,909.40 891.65,911.15 892.00,913.60"/>
    </edge>
    <edge id=":J_0_2_19" function="internal">
        <lane id=":J_0_2_19_0" index="0" speed="13.89" length="27.20" shape="886.40,908.00 913.60,908.00"/>
        <lane id=":J_0_2_19_1" index="1" speed="13.89" length="27.20" shape="886.40,904.80 913.60,904.80"/>
        <lane id=":J_0_2_19_2" index="2" speed="13.89" length="27.20" shape="886.40,901.60 913.60,901.60"/>
    </edge>
    <edge id=":J_0_2_22" function="internal">
        <lane id=":J_0_2_22_0" index="0" speed="10.36" length="5.01" shape="886.40,901.60 891.36,900.89"/>
    </edge>
    <edge id=":J_0_2_23" function="internal">
        <lane id=":J_0_2_23_0" index="0" speed="3.65" length="1.44" shape="886.40,901.60 887.60,900.80"/>
    </edge>
    <edge id=":J_0_2_30" function="internal">
        <lane id=":J_0_2_30_0" index="0" speed="10.36" length="19.50" shape="891.36,900.89 893.05,900.65 897.80,897.80 900.65,893.05 901.60,886.40"/>
    </edge>
    <edge id=":J_0_2_31" function="internal">
        <lane id=":J_0_2_31_0" index="0" speed="3.65" length="3.23" shape="887.60,900.80 888.00,900.00 887.60,899.20 886.40,898.40"/>
    </edge>
    <edge id=":J_1_0_0" function="internal">
        <lane id=":J_1_0_0_0" index="0" speed="6.51" length="9.03" shape="92.00,486.40 91.65,488.85 90.60,490.60 88.85,491.65 86.40,492.00"/>
    </edge>
    <edge id=":J_1_0_1" function="internal">
        <lane id=":J_1_0_1_0" index="0" speed="13.89" length="27.20" shape="95.20,486.40 95.20,513.60"/>
    </edge>
    <edge id=":J_1_0_2" function="internal">
        <lane id=":J_1_0_2_0" index="0" speed="10.36" length="24.51" shape="98.40,486.40 99.35,493.05 102.20,497.80 106.95,500.65 113.60,501.60"/>
    </edge>
    <edge id=":J_1_0_3" function="internal">
        <lane id=":J_1_0_3_0" index="0" speed="6.51" length="9.03" shape="113.60,492.00 111.15,491.65 109.40,490.60 108.35,488.85 108.00,486.40"/>
    </edge>
    <edge id=":J_1_0_4" function="internal">
        <lane id=":J_1_0_4_0" index="0" speed="13.89" length="27.20" shape="113.60,495.20 86.40,495.20"/>
    </edge>
    <edge id=":J_1_0_5" function="internal">
        <lane id=":J_1_0_5_0" index="0" speed="10.36" length="24.51" shape="113.60,498.40 106.95,499.35 102.20,502.20 99.35,506.95 98.40,513.60"/>
    </edge>
    <edge id=":J_1_0_6" function="internal">
        <lane id=":J_1_0_6_0" index="0" speed="6.51" length="9.03" shape="108.00,513.60 108.35,511.15 109.40,509.40 111.15,508.35 113.60,508.00"/>
    </edge>
    <edge id=":J_1_0_7" function="internal">
        <lane id=":J_1_0_7_0" index="0" speed="13.89" length="27.20" shape="104.80,513.60 104.80,486.40"/>
    </edge>
    <edge id=":J_1_0_8" function="internal">
        <lane id=":J_1_0_8_0" index="0" speed="10.36" length="24.51" shape="101.60,513.60 100.65,506.95 97.80,502.20 93.05,499.35 86.40,498.40"/>
    </edge>
    <edge id=":J_1_0_9" function="internal">
        <lane id=":J_1_0_9_0" index="0" speed="6.51" length="9.03" shape="86.40,508.00 88.85,508.35 90.60,509.40 91.65,511.15 92.00,513.60"/>
    </edge>
    <edge id=":J_1_0_10" function="internal">
        <lane id=":J_1_0_10_0" index="0" speed="13.89" length="27.20" shape="86.40,504.80 113.60,504.80"/>
    </edge>
    <edge id=":J_1_0_11" function="internal">
        <lane id=":J_1_0_11_0" index="0" speed="10.36" length="24.51" shape="86.40,501.60 93.05,500.65 97.80,497.80 100.65,493.05 101.60,486.40"/>
    </edge>
    <edge id=":J_1_1_0" function="internal">
        <lane id=":J_1_1_0_0" index="0" speed="6.51" length="9.03" shape="492.00,486.40 491.65,488.85 490.60,490.60 488.85,491.65 486.40,492.00"/>
    </edge>
    <edge id=":J_1_1_1" function="internal">
        <lane id=":J_1_1_1_0" index="0" speed="13.89" length="27.20" shape="492.00,486.40 492.00,513.60"/>
        <lane id=":J_1_1_1_1" index="1" speed="13.89" length="27.20" shape="495.20,486.40 495.20,513.60"/>
        <lane id=":J_1_1_1_2" index="2" speed="13.89" length="27.20" shape="498.40,486.40 498.40,513.60"/>
    </edge>
    <edge id=":J_1_1_4" function="internal">
        <lane id=":J_1_1_4_0" index="0" speed="10.36" length="5.01" shape="498.40,486.40 499.11,491.36"/>
    </edge>
    <edge id=":J_1_1_5" function="internal">
        <lane id=":J_1_1_5_0" index="0" speed="3.65" length="1.44" shape="498.40,486.40 499.20,487.60"/>
    </edge>
    <edge id=":J_1_1_24" function="internal">
        <lane id=":J_1_1_24_0" index="0" speed="10.36" length="19.50" shape="499.11,491.36 499.35,493.05 502.20,497.80 506.95,500.65 513.60,501.60"/>
    </edge>
    <edge id=":J_1_1_25" function="internal">
        <lane id=":J_1_1_25_0" index="0" speed="3.65" length="3.23" shape="499.20,487.60 500.00,488.00 500.80,487.60 501.60,486.40"/>
    </edge>
    <edge id=":J_1_1_6" function="internal">
        <lane id=":J_1_1_6_0" index="0" speed="6.51" length="9.03" shape="513.60,492.00 511.15,491.65 509.40,490.60 508.35,488.85 508.00,486.40"/>
    </edge>
    <edge id=":J_1_1_7" function="internal">
        <lane id=":J_1_1_7_0" index="0" speed="13.89" length="27.20" shape="513.60,492.00 486.40,492.00"/>
        <lane id=":J_1_1_7_1" index="1" speed="13.89" length="27.20" shape="513.60,495.20 486.40,495.20"/>
        <lane id=":J_1_1_7_2" index="2" speed="13.89" length="27.20" shape="513.60,498.40 486.40,498.40"/>
    </edge>
    <edge id=":J_1_1_10" function="internal">
        <lane id=":J_1_1_10_0" index="0" speed="10.36" length="5.01" shape="513.60,498.40 508.64,499.11"/>
    </edge>
    <edge id=":J_1_1_11" function="internal">
        <lane id=":J_1_1_11_0" index="0" speed="3.65" length="1.44" shape="513.60,498.40 512.40,499.20"/>
    </edge>
    <edge id=":J_1_1_26" function="internal">
        <lane id=":J_1_1_26_0" index="0" speed="10.36" length="19.50" shape="508.64,499.11 506.95,499.35 502.20,502.20 499.35,506.95 498.40,513.60"/>
    </edge>
    <edge id=":J_1_1_27" function="internal">
        <lane id=":J_1_1_27_0" index="0" speed="3.65" length="3.23" shape="512.40,499.20 512.00,500.00 512.40,500.80 513.60,501.60"/>
    </edge>
    <edge id=":J_1_1_12" function="internal">
        <lane id=":J_1_1_12_0" index="0" speed="6.51" length="9.03" shape="508.00,513.60 508.35,511.15 509.40,509.40 511.15,508.35 513.60,508.00"/>
    </edge>
    <edge id=":J_1_1_13" function="internal">
        <lane id=":J_1_1_13_0" index="0" speed="13.89" length="27.20" shape="508.00,513.60 508.00,486.40"/>
        <lane id=":J_1_1_13_1" index="1" speed="13.89" length="27.20" shape="504.80,513.60 504.80,486.40"/>
        <lane id=":J_1_1_13_2" index="2" speed="13.89" length="27.20" shape="501.60,513.60 501.60,486.40"/>
    </edge>
    <edge id=":J_1_1_16" function="internal">
        <lane id=":J_1_1_16_0" index="0" speed="10.36" length="5.01" shape="501.60,513.60 500.89,508.64"/>
    </edge>
    <edge id=":J_1_1_17" function="internal">
        <lane id=":J_1_1_17_0" index="0" speed="3.65" length="1.44" shape="501.60,513.60 500.80,512.40"/>
    </edge>
    <edge id=":J_1_1_28" function="internal">
        <lane id=":J_1_1_28_0" index="0" speed="10.36" length="19.50" shape="500.89,508.64 500.65,506.95 497.80,502.20 493.05,499.35 486.40,498.40"/>
    </edge>
    <edge id=":J_1_1_29" function="internal">
        <lane id=":J_1_1_29_0" index="0" speed="3.65" length="3.23" shape="500.80,512.40 500.00,512.00 499.20,512.40 498.40,513.60"/>
    </edge>
    <edge id=":J_1_1_18" function="internal">
        <lane id=":J_1_1_18_0" index="0" speed="6.51" length="9.03" shape="486.40,508.00 488.85,508.35 490.60,509.40 491.65,511.15 492.00,513.60"/>
    </edge>
    <edge id=":J_1_1_19" function="internal">
        <lane id=":J_1_1_19_0" index="0" speed="13.89" length="27.20" shape="486.40,508.00 513.60,508.00"/>
        <lane id=":J_1_1_19_1" index="1" speed="13.89" length="27.20" shape="486.40,504.80 513.60,504.80"/>
        <lane id=":J_1_1_19_2" index="2" speed="13.89" length="27.20" shape="486.40,501.60 513.60,501.60"/>
    </edge>
    <edge id=":J_1_1_22" function="internal">
        <lane id=":J_1_1_22_0" index="0" speed="10.36" length="5.01" shape="486.40,501.60 491.36,500.89"/>
    </edge>
    <edge id=":J_1_1_23" function="internal">
        <lane id=":J_1_1_23_0" index="0" speed="3.65" length="1.44" shape="486.40,501.60 487.60,500.80"/>
    </edge>
    <edge id=":J_1_1_30" function="internal">
        <lane id=":J_1_1_30_0" index="0" speed="10.36" length="19.50" shape="491.36,500.89 493.05,500.65 497.80,497.80 500.65,493.05 501.60,486.40"/>
    </edge>
    <edge id=":J_1_1_31" function="internal">
        <lane id=":J_1_1_31_0" index="0" speed="3.65" length="3.23" shape="487.60,500.80 488.00,500.00 487.60,499.20 486.40,498.40"/>
    </edge>
    <edge id=":J_1_2_0" function="internal">
        <lane id=":J_1_2_0_0" index="0" speed="6.51" length="9.03" shape="892.00,486.40 891.65,488.85 890.60,490.60 888.85,491.65 886.40,492.00"/>
    </edge>
    <edge id=":J_1_2_1" function="internal">
        <lane id=":J_1_2_1_0" index="0" speed="13.89" length="27.20" shape="892.00,486.40 892.00,513.60"/>
        <lane id=":J_1_2_1_1" index="1" speed="13.89" length="27.20" shape="895.20,486.40 895.20,513.60"/>
        <lane id=":J_1_2_1_2" index="2" speed="13.89" length="27.20" shape="898.40,486.40 898.40,513.60"/>
    </edge>
    <edge id=":J_1_2_4" function="internal">
        <lane id=":J_1_2_4_0" index="0" speed="10.36" length="5.01" shape="898.40,486.40 899.11,491.36"/>
    </edge>
    <edge id=":J_1_2_5" function="internal">
        <lane id=":J_1_2_5_0" index="0" speed="3.65" length="1.44" shape="898.40,486.40 899.20,487.60"/>
    </edge>
    <edge id=":J_1_2_24" function="internal">
        <lane id=":J_1_2_24_0" index="0" speed="10.36" length="19.50" shape="899.11,491.36 899.35,493.05 902.20,497.80 906.95,500.65 913.60,501.60"/>
    </edge>
    <edge id=":J_1_2_25" function="internal">
        <lane id=":J_1_2_25_0" index="0" speed="3.65" length="3.23" shape="899.20,487.60 900.00,488.00 900.80,487.60 901.60,486.40"/>
    </edge>
    <edge id=":J_1_2_6" function="internal">
        <lane id=":J_1_2_6_0" index="0" speed="6.51" length="9.03" shape="913.60,492.00 911.15,491.65 909.40,490.60 908.35,488.85 908.00,486.40"/>
    </edge>
    <edge id=":J_1_2_7" function="internal">
        <lane id=":J_1_2_7_0" index="0" speed="13.89" length="27.20" shape="913.60,492.00 886.40,492.00"/>
        <lane id=":J_1_2_7_1" index="1" speed="13.89" length="27.20" shape="913.60,495.20 886.40,495.20"/>
        <lane id=":J_1_2_7_2" index="2" speed="13.89" length="27.20" shape="913.60,498.40 886.40,498.40"/>
    </edge>
    <edge id=":J_1_2_10" function="internal">
        <lane id=":J_1_2_10_0" index="0" speed="10.36" length="5.01" shape="913.60,498.40 908.64,499.11"/>
    </edge>
    <edge id=":J_1_2_11" function="internal">
        <lane id=":J_1_2_11_0" index="0" speed="3.65" length="1.44" shape="913.60,498.40 912.40,499.20"/>
    </edge>
    <edge id=":J_1_2_26" function="internal">
        <lane id=":J_1_2_26_0" index="0" speed="10.36" length="19.50" shape="908.64,499.11 906.95,499.35 902.20,502.20 899.35,506.95 898.40,513.60"/>
    </edge>
    <edge id=":J_1_2_27" function="internal">
        <lane id=":J_1_2_27_0" index="0" speed="3.65" length="3.23" shape="912.40,499.20 912.00,500.00 912.40,500.80 913.60,501.60"/>
    </edge>
    <edge id=":J_1_2_12" function="internal">