<?xml version="1.0" encoding="UTF-8"?>

<sumoConfiguration xmlns:xsi="http://www.w3.org/2001/XMLSchema-instance" xsi:noNamespaceSchemaLocation="http://sumo.dlr.de/xsd/sumoConfiguration.xsd">

    <input>
        <net-file value="grid_3x3.net.xml"/>
        <route-files value="grid_3x3_p06.rou.xml"/>
    </input>

    <time>
        <begin value="0"/>
        <end value="3600"/> 
    </time>

    <processing>
        <time-to-teleport value="-1"/>
    </processing>
</sumoConfiguration>