<additional>
    <tlLogic id="J_0_0" type="actuated" programID="0" offset="0">
        <phase duration="25" state="GGGGrgGrrrrrGGGGrgGrrrrr" minDur="5" maxDur="50"/> 
        <phase duration="4" state="GyyyryGrryrrGyyyryGrryrr"/> 
        <phase duration="2" state="rrrrrrrrrrrrrrrrrrrrrrrr"/> 
        <phase duration="10" state="GrryGgGrrrrrGrryGgGrrrrr"/> 
        <phase duration="4" state="GrryyyGrrrrrGrryyyGrrrrr"/> 
        <phase duration="2" state="rrrrrrrrrrrrrrrrrrrrrrrr"/> 
        <phase duration="25" state="GrrrrrGGGGrgGrrrrrGGGGrg"/> 
        <phase duration="4" state="GrrrrrGyyGryGrrrrrGyyGry"/> 
        <phase duration="2" state="rrrrrrrrrrrrrrrrrrrrrrrr"/> 
        <phase duration="10" state="GrrrrrGrryGgGrrrrrGrryGg"/> 
        <phase duration="4" state="GrrrrrGrryyyyrrrrrGrryyy"/> 
        <phase duration="2" state="rrrrrrrrrrrrrrrrrrrrrrrr"/> 
    </tlLogic>
    <tlLogic id="J_0_1" type="actuated" programID="0" offset="0">
        <phase duration="25" state="GGGGrgGrrrrrGGGGrgGrrrrr" minDur="5" maxDur="50"/> 
        <phase duration="4" state="GyyyryGrryrrGyyyryGrryrr"/> 
        <phase duration="2" state="rrrrrrrrrrrrrrrrrrrrrrrr"/> 
        <phase duration="10" state="GrryGgGrrrrrGrryGgGrrrrr"/> 
        <phase duration="4" state="GrryyyGrrrrrGrryyyGrrrrr"/> 
        <phase duration="2" state="rrrrrrrrrrrrrrrrrrrrrrrr"/> 
        <phase duration="25" state="GrrrrrGGGGrgGrrrrrGGGGrg"/> 
        <phase duration="4" state="GrrrrrGyyGryGrrrrrGyyGry"/> 
        <phase duration="2" state="rrrrrrrrrrrrrrrrrrrrrrrr"/> 
        <phase duration="10" state="GrrrrrGrryGgGrrrrrGrryGg"/> 
        <phase duration="4" state="GrrrrrGrryyyyrrrrrGrryyy"/> 
        <phase duration="2" state="rrrrrrrrrrrrrrrrrrrrrrrr"/> 
    </tlLogic>
    <tlLogic id="J_0_2" type="actuated" programID="0" offset="0">
        <phase duration="25" state="GGGGrgGrrrrrGGGGrgGrrrrr" minDur="5" maxDur="50"/> 
        <phase duration="4" state="GyyyryGrryrrGyyyryGrryrr"/> 
        <phase duration="2" state="rrrrrrrrrrrrrrrrrrrrrrrr"/> 
        <phase duration="10" state="GrryGgGrrrrrGrryGgGrrrrr"/> 
        <phase duration="4" state="GrryyyGrrrrrGrryyyGrrrrr"/> 
        <phase duration="2" state="rrrrrrrrrrrrrrrrrrrrrrrr"/> 
        <phase duration="25" state="GrrrrrGGGGrgGrrrrrGGGGrg"/> 
        <phase duration="4" state="GrrrrrGyyGryGrrrrrGyyGry"/> 
        <phase duration="2" state="rrrrrrrrrrrrrrrrrrrrrrrr"/> 
        <phase duration="10" state="GrrrrrGrryGgGrrrrrGrryGg"/> 
        <phase duration="4" state="GrrrrrGrryyyyrrrrrGrryyy"/> 
        <phase duration="2" state="rrrrrrrrrrrrrrrrrrrrrrrr"/> 
    </tlLogic>
    <tlLogic id="J_1_0" type="actuated" programID="0" offset="0">
        <phase duration="25" state="GGGGrgGrrrrrGGGGrgGrrrrr" minDur="5" maxDur="50"/> 
        <phase duration="4" state="GyyyryGrryrrGyyyryGrryrr"/> 
        <phase duration="2" state="rrrrrrrrrrrrrrrrrrrrrrrr"/> 
        <phase duration="10" state="GrryGgGrrrrrGrryGgGrrrrr"/> 
        <phase duration="4" state="GrryyyGrrrrrGrryyyGrrrrr"/> 
        <phase duration="2" state="rrrrrrrrrrrrrrrrrrrrrrrr"/> 
        <phase duration="25" state="GrrrrrGGGGrgGrrrrrGGGGrg"/> 
        <phase duration="4" state="GrrrrrGyyGryGrrrrrGyyGry"/> 
        <phase duration="2" state="rrrrrrrrrrrrrrrrrrrrrrrr"/> 
        <phase duration="10" state="GrrrrrGrryGgGrrrrrGrryGg"/> 
        <phase duration="4" state="GrrrrrGrryyyyrrrrrGrryyy"/> 
        <phase duration="2" state="rrrrrrrrrrrrrrrrrrrrrrrr"/> 
    </tlLogic>
    <tlLogic id="J_1_1" type="actuated" programID="0" offset="0">
        <phase duration="25" state="GGGGrgGrrrrrGGGGrgGrrrrr" minDur="5" maxDur="50"/> 
        <phase duration="4" state="GyyyryGrryrrGyyyryGrryrr"/> 
        <phase duration="2" state="rrrrrrrrrrrrrrrrrrrrrrrr"/> 
        <phase duration="10" state="GrryGgGrrrrrGrryGgGrrrrr"/> 
        <phase duration="4" state="GrryyyGrrrrrGrryyyGrrrrr"/> 
        <phase duration="2" state="rrrrrrrrrrrrrrrrrrrrrrrr"/> 
        <phase duration="25" state="GrrrrrGGGGrgGrrrrrGGGGrg"/> 
        <phase duration="4" state="GrrrrrGyyGryGrrrrrGyyGry"/> 
        <phase duration="2" state="rrrrrrrrrrrrrrrrrrrrrrrr"/> 
        <phase duration="10" state="GrrrrrGrryGgGrrrrrGrryGg"/> 
        <phase duration="4" state="GrrrrrGrryyyyrrrrrGrryyy"/> 
        <phase duration="2" state="rrrrrrrrrrrrrrrrrrrrrrrr"/> 
    </tlLogic>
    <tlLogic id="J_1_2" type="actuated" programID="0" offset="0">
        <phase duration="25" state="GGGGrgGrrrrrGGGGrgGrrrrr" minDur="5" maxDur="50"/> 
        <phase duration="4" state="GyyyryGrryrrGyyyryGrryrr"/> 
        <phase duration="2" state="rrrrrrrrrrrrrrrrrrrrrrrr"/> 
        <phase duration="10" state="GrryGgGrrrrrGrryGgGrrrrr"/> 
        <phase duration="4" state="GrryyyGrrrrrGrryyyGrrrrr"/> 
        <phase duration="2" state="rrrrrrrrrrrrrrrrrrrrrrrr"/> 
        <phase duration="25" state="GrrrrrGGGGrgGrrrrrGGGGrg"/> 
        <phase duration="4" state="GrrrrrGyyGryGrrrrrGyyGry"/> 
        <phase duration="2" state="rrrrrrrrrrrrrrrrrrrrrrrr"/> 
        <phase duration="10" state="GrrrrrGrryGgGrrrrrGrryGg"/> 
        <phase duration="4" state="GrrrrrGrryyyyrrrrrGrryyy"/> 
        <phase duration="2" state="rrrrrrrrrrrrrrrrrrrrrrrr"/> 
    </tlLogic>
    <tlLogic id="J_2_0" type="actuated" programID="0" offset="0">
        <phase duration="25" state="GGGGrgGrrrrrGGGGrgGrrrrr" minDur="5" maxDur="50"/> 
        <phase duration="4" state="GyyyryGrryrrGyyyryGrryrr"/> 
        <phase duration="2" state="rrrrrrrrrrrrrrrrrrrrrrrr"/> 
        <phase duration="10" state="GrryGgGrrrrrGrryGgGrrrrr"/> 
        <phase duration="4" state="GrryyyGrrrrrGrryyyGrrrrr"/> 
        <phase duration="2" state="rrrrrrrrrrrrrrrrrrrrrrrr"/> 
        <phase duration="25" state="GrrrrrGGGGrgGrrrrrGGGGrg"/> 
        <phase duration="4" state="GrrrrrGyyGryGrrrrrGyyGry"/> 
        <phase duration="2" state="rrrrrrrrrrrrrrrrrrrrrrrr"/> 
        <phase duration="10" state="GrrrrrGrryGgGrrrrrGrryGg"/> 
        <phase duration="4" state="GrrrrrGrryyyyrrrrrGrryyy"/> 
        <phase duration="2" state="rrrrrrrrrrrrrrrrrrrrrrrr"/> 
    </tlLogic>
    <tlLogic id="J_2_1" type="actuated" programID="0" offset="0">
        <phase duration="25" state="GGGGrgGrrrrrGGGGrgGrrrrr" minDur="5" maxDur="50"/> 
        <phase duration="4" state="GyyyryGrryrrGyyyryGrryrr"/> 
        <phase duration="2" state="rrrrrrrrrrrrrrrrrrrrrrrr"/> 
        <phase duration="10" state="GrryGgGrrrrrGrryGgGrrrrr"/> 
        <phase duration="4" state="GrryyyGrrrrrGrryyyGrrrrr"/> 
        <phase duration="2" state="rrrrrrrrrrrrrrrrrrrrrrrr"/> 
        <phase duration="25" state="GrrrrrGGGGrgGrrrrrGGGGrg"/> 
        <phase duration="4" state="GrrrrrGyyGryGrrrrrGyyGry"/> 
        <phase duration="2" state="rrrrrrrrrrrrrrrrrrrrrrrr"/> 
        <phase duration="10" state="GrrrrrGrryGgGrrrrrGrryGg"/> 
        <phase duration="4" state="GrrrrrGrryyyyrrrrrGrryyy"/> 
        <phase duration="2" state="rrrrrrrrrrrrrrrrrrrrrrrr"/> 
    </tlLogic>
    <tlLogic id="J_2_2" type="actuated" programID="0" offset="0">
        <phase duration="25" state="GGGGrgGrrrrrGGGGrgGrrrrr" minDur="5" maxDur="50"/> 
        <phase duration="4" state="GyyyryGrryrrGyyyryGrryrr"/> 
        <phase duration="2" state="rrrrrrrrrrrrrrrrrrrrrrrr"/> 
        <phase duration="10" state="GrryGgGrrrrrGrryGgGrrrrr"/> 
        <phase duration="4" state="GrryyyGrrrrrGrryyyGrrrrr"/> 
        <phase duration="2" state="rrrrrrrrrrrrrrrrrrrrrrrr"/> 
        <phase duration="25" state="GrrrrrGGGGrgGrrrrrGGGGrg"/> 
        <phase duration="4" state="GrrrrrGyyGryGrrrrrGyyGry"/> 
        <phase duration="2" state="rrrrrrrrrrrrrrrrrrrrrrrr"/> 
        <phase duration="10" state="GrrrrrGrryGgGrrrrrGrryGg"/> 
        <phase duration="4" state="GrrrrrGrryyyyrrrrrGrryyy"/> 
        <phase duration="2" state="rrrrrrrrrrrrrrrrrrrrrrrr"/> 
    </tlLogic>

</additional>