<?xml version="1.0" encoding="UTF-8"?>

<!-- generated on 2025-04-21 21:09:31 by Eclipse SUMO netedit Version v1_22_0+1609-d3d000a8f75
-->

<routes xmlns:xsi="http://www.w3.org/2001/XMLSchema-instance" xsi:noNamespaceSchemaLocation="http://sumo.dlr.de/xsd/routes_file.xsd">
    <!-- Vehicles, persons and containers (sorted by depart) -->
    <trip id="t_0" depart="0.00" from="E1" to="E10"/>
    <trip id="t_1" depart="0.00" from="E1" to="E0.47"/>
    <trip id="t_10" depart="0.00" from="-E0" to="-E00"/>
    <trip id="t_2" depart="0.00" from="E1" to="-E00"/>
    <trip id="t_3" depart="0.00" from="-E1" to="-E10"/>
    <trip id="t_4" depart="0.00" from="-E1" to="-E00"/>
    <trip id="t_5" depart="0.00" from="E0" to="E0.47"/>
    <trip id="t_6" depart="0.00" from="-E1" to="E0.47"/>
    <trip id="t_7" depart="0.00" from="E0" to="E10"/>
    <trip id="t_8" depart="0.00" from="-E0" to="-E10"/>
    <trip id="t_9" depart="0.00" from="-E0" to="E10"/>
</routes>
