<?xml version="1.0" encoding="UTF-8"?>

<!-- generated on 2025-04-21 21:14:55 by Eclipse SUMO netedit Version v1_22_0+1609-d3d000a8f75
-->

<neteditConfiguration xmlns:xsi="http://www.w3.org/2001/XMLSchema-instance" xsi:noNamespaceSchemaLocation="http://sumo.dlr.de/xsd/neteditConfiguration.xsd">

    <input>
        <sumocfg-file value="single_int.sumocfg"/>
        <route-files value="single_int.rou.xml"/>
        <sumo-net-file value="single_int.net.xml"/>
    </input>

    <processing>
        <offset.disable-normalization value="true"/>
    </processing>

    <junctions>
        <no-turnarounds value="true"/>
    </junctions>

    <netedit>
        <new-network value="false"/>
    </netedit>

</neteditConfiguration>
