<?xml version="1.0" encoding="UTF-8"?>

<!-- generated on 2025-04-21 21:13:59 by Eclipse SUMO sumo Version v1_22_0+1609-d3d000a8f75
-->

<sumoConfiguration xmlns:xsi="http://www.w3.org/2001/XMLSchema-instance" xsi:noNamespaceSchemaLocation="http://sumo.dlr.de/xsd/sumoConfiguration.xsd">

    <input>
        <net-file value="single_int.net.xml"/>
        <route-files value="single_int.rou.xml"/>
    </input>

</sumoConfiguration>
